bromoaniline_pyramidal_n
  PyMOL3.1          3D                             0

 23 23  0  0  0  0  0  0  0  0999 V2000
   -1.4458   -1.7176    0.0170 C   0  0  0  0  0  0  0  0  0  0  0  0
   -1.0546   -0.9425    1.3015 N   0  0  0  0  0  0  0  0  0  0  0  0
   -1.9585    0.1415    1.6308 C   0  0  0  0  0  0  0  0  0  0  0  0
   -2.7967    0.5618    0.4435 C   0  0  0  0  0  0  0  0  0  0  0  0
    0.3484   -0.7000    1.2754 C   0  0  0  0  0  0  0  0  0  0  0  0
    1.2460   -1.3523    2.0901 C   0  0  0  0  0  0  0  0  0  0  0  0
    0.6225   -2.6542    3.3361 Br  0  0  0  0  0  0  0  0  0  0  0  0
    2.5982   -1.0726    2.0161 C   0  0  0  0  0  0  0  0  0  0  0  0
    3.0932   -0.1415    1.1346 C   0  0  0  0  0  0  0  0  0  0  0  0
    2.2034    0.5185    0.3131 C   0  0  0  0  0  0  0  0  0  0  0  0
    0.8583    0.2364    0.3908 C   0  0  0  0  0  0  0  0  0  0  0  0
   -0.8014   -2.2429   -0.7458 H   0  0  0  0  0  0  0  0  0  0  0  0
   -1.4210   -2.3706    0.8984 H   0  0  0  0  0  0  0  0  0  0  0  0
   -2.4518   -1.6307   -0.4352 H   0  0  0  0  0  0  0  0  0  0  0  0
   -1.3862    1.0424    1.9317 H   0  0  0  0  0  0  0  0  0  0  0  0
   -2.6760   -0.1058    2.4343 H   0  0  0  0  0  0  0  0  0  0  0  0
   -3.7071   -0.0519    0.3544 H   0  0  0  0  0  0  0  0  0  0  0  0
   -2.1752    0.5509   -0.5002 H   0  0  0  0  0  0  0  0  0  0  0  0
   -3.1408    1.6198    0.5520 H   0  0  0  0  0  0  0  0  0  0  0  0
    3.2610   -1.6237    2.6896 H   0  0  0  0  0  0  0  0  0  0  0  0
    4.1557    0.0542    1.1015 H   0  0  0  0  0  0  0  0  0  0  0  0
    2.5804    1.2605   -0.3914 H   0  0  0  0  0  0  0  0  0  0  0  0
    0.2068    0.7967   -0.2901 H   0  0  0  0  0  0  0  0  0  0  0  0
  1  2  1  0  0  0  0
  1 12  1  0  0  0  0
  1 13  1  0  0  0  0
  1 14  1  0  0  0  0
  2  3  1  0  0  0  0
  2  5  1  0  0  0  0
  3  4  1  0  0  0  0
  3 15  1  0  0  0  0
  3 16  1  0  0  0  0
  4 17  1  0  0  0  0
  4 18  1  0  0  0  0
  4 19  1  0  0  0  0
  5  6  1  0  0  0  0
  6  7  1  0  0  0  0
  6  8  2  0  0  0  0
  8  9  1  0  0  0  0
  8 20  1  0  0  0  0
  9 10  2  0  0  0  0
  9 21  1  0  0  0  0
 10 11  1  0  0  0  0
 10 22  1  0  0  0  0
  5 11  2  0  0  0  0
 11 23  1  0  0  0  0
M  END
$$$$
