bromoaniline_planar_n
     RDKit          3D

 23 23  0  0  0  0  0  0  0  0999 V2000
   -1.4458   -1.7176    0.0170 C   0  0  0  0  0  0  0  0  0  0  0  0
   -0.8538   -0.4284    0.3054 N   0  0  0  0  0  0  0  0  0  0  0  0
   -1.7577    0.6556    0.6347 C   0  0  0  0  0  0  0  0  0  0  0  0
   -2.5959    1.0759   -0.5526 C   0  0  0  0  0  0  0  0  0  0  0  0
    0.5492   -0.1859    0.2793 C   0  0  0  0  0  0  0  0  0  0  0  0
    1.4468   -0.8382    1.0940 C   0  0  0  0  0  0  0  0  0  0  0  0
    0.8233   -2.1401    2.3400 Br  0  0  0  0  0  0  0  0  0  0  0  0
    2.7990   -0.5585    1.0200 C   0  0  0  0  0  0  0  0  0  0  0  0
    3.2940    0.3726    0.1385 C   0  0  0  0  0  0  0  0  0  0  0  0
    2.4042    1.0326   -0.6830 C   0  0  0  0  0  0  0  0  0  0  0  0
    1.0591    0.7505   -0.6053 C   0  0  0  0  0  0  0  0  0  0  0  0
   -0.8041   -2.2408   -0.7495 H   0  0  0  0  0  0  0  0  0  0  0  0
   -1.3905   -2.3170    0.9344 H   0  0  0  0  0  0  0  0  0  0  0  0
   -2.4538   -1.6308   -0.4308 H   0  0  0  0  0  0  0  0  0  0  0  0
   -1.1854    1.5565    0.9356 H   0  0  0  0  0  0  0  0  0  0  0  0
   -2.4752    0.4083    1.4382 H   0  0  0  0  0  0  0  0  0  0  0  0
   -3.5063    0.4622   -0.6417 H   0  0  0  0  0  0  0  0  0  0  0  0
   -1.9744    1.0650   -1.4963 H   0  0  0  0  0  0  0  0  0  0  0  0
   -2.9400    2.1339   -0.4441 H   0  0  0  0  0  0  0  0  0  0  0  0
    3.4618   -1.1096    1.6935 H   0  0  0  0  0  0  0  0  0  0  0  0
    4.3565    0.5683    0.1054 H   0  0  0  0  0  0  0  0  0  0  0  0
    2.7812    1.7746   -1.3875 H   0  0  0  0  0  0  0  0  0  0  0  0
    0.4076    1.3108   -1.2862 H   0  0  0  0  0  0  0  0  0  0  0  0
  1  2  1  0
  2  3  1  0
  3  4  1  0
  2  5  1  0
  5  6  1  0
  6  7  1  0
  6  8  2  0
  8  9  1  0
  9 10  2  0
 10 11  1  0
 11  5  2  0
  1 12  1  0
  1 13  1  0
  1 14  1  0
  3 15  1  0
  3 16  1  0
  4 17  1  0
  4 18  1  0
  4 19  1  0
  8 20  1  0
  9 21  1  0
 10 22  1  0
 11 23  1  0
M  END
$$$$
