trialkylamine_planar_n
  PyMOL3.1          3D                             0

 22 21  0  0  0  0  0  0  0  0999 V2000
    1.5671   -1.9836    0.6756 C   0  0  0  0  0  0  0  0  0  0  0  0
    1.1633   -1.1939    0.1163 N   0  0  0  0  0  0  0  0  0  0  0  0
    1.9220    0.0298   -0.0288 C   0  0  0  0  0  0  0  0  0  0  0  0
    2.0276    0.5305   -1.4263 C   0  0  0  0  0  0  0  0  0  0  0  0
   -0.0958   -1.2069   -0.5523 C   0  0  0  0  0  0  0  0  0  0  0  0
   -1.0877   -0.1791   -0.1401 C   0  0  0  0  0  0  0  0  0  0  0  0
   -2.3818   -0.3379   -0.9513 C   0  0  0  0  0  0  0  0  0  0  0  0
    0.6067   -2.4121    0.9715 H   0  0  0  0  0  0  0  0  0  0  0  0
    2.3670   -2.7534    0.8168 H   0  0  0  0  0  0  0  0  0  0  0  0
    1.8646   -1.1190    1.3006 H   0  0  0  0  0  0  0  0  0  0  0  0
    1.5761    0.8139    0.6860 H   0  0  0  0  0  0  0  0  0  0  0  0
    2.9610   -0.2278    0.3352 H   0  0  0  0  0  0  0  0  0  0  0  0
    1.7758   -0.1767   -2.2122 H   0  0  0  0  0  0  0  0  0  0  0  0
    3.0764    0.8910   -1.6369 H   0  0  0  0  0  0  0  0  0  0  0  0
    1.4036    1.4599   -1.5303 H   0  0  0  0  0  0  0  0  0  0  0  0
   -0.5610   -2.2096   -0.3073 H   0  0  0  0  0  0  0  0  0  0  0  0
    0.0762   -1.2086   -1.6381 H   0  0  0  0  0  0  0  0  0  0  0  0
   -0.7198    0.8393   -0.4434 H   0  0  0  0  0  0  0  0  0  0  0  0
   -1.3329   -0.1127    0.9145 H   0  0  0  0  0  0  0  0  0  0  0  0
   -3.0989   -0.9594   -0.3654 H   0  0  0  0  0  0  0  0  0  0  0  0
   -2.8552    0.6389   -1.1264 H   0  0  0  0  0  0  0  0  0  0  0  0
   -2.1681   -0.7840   -1.9528 H   0  0  0  0  0  0  0  0  0  0  0  0
  1  2  1  0  0  0  0
  1  8  1  0  0  0  0
  1  9  1  0  0  0  0
  1 10  1  0  0  0  0
  2  3  1  0  0  0  0
  2  5  1  0  0  0  0
  3  4  1  0  0  0  0
  3 11  1  0  0  0  0
  3 12  1  0  0  0  0
  4 13  1  0  0  0  0
  4 14  1  0  0  0  0
  4 15  1  0  0  0  0
  5  6  1  0  0  0  0
  5 16  1  0  0  0  0
  5 17  1  0  0  0  0
  6  7  1  0  0  0  0
  6 18  1  0  0  0  0
  6 19  1  0  0  0  0
  7 20  1  0  0  0  0
  7 21  1  0  0  0  0
  7 22  1  0  0  0  0
M  END
$$$$
