trialkylamine_pyramidal_n
     RDKit          3D

 22 21  0  0  0  0  0  0  0  0999 V2000
    0.8993   -1.2407    1.6996 C   0  0  0  0  0  0  0  0  0  0  0  0
    0.8702   -0.7836    0.3321 N   0  0  0  0  0  0  0  0  0  0  0  0
    1.6704    0.4116    0.1731 C   0  0  0  0  0  0  0  0  0  0  0  0
    1.6903    0.9636   -1.2089 C   0  0  0  0  0  0  0  0  0  0  0  0
   -0.4361   -0.7159   -0.2349 C   0  0  0  0  0  0  0  0  0  0  0  0
   -1.3453    0.3355    0.2922 C   0  0  0  0  0  0  0  0  0  0  0  0
   -2.7041    0.2649   -0.4195 C   0  0  0  0  0  0  0  0  0  0  0  0
   -0.0760   -1.5279    2.0994 H   0  0  0  0  0  0  0  0  0  0  0  0
    1.5771   -2.1309    1.7213 H   0  0  0  0  0  0  0  0  0  0  0  0
    1.4018   -0.4620    2.3061 H   0  0  0  0  0  0  0  0  0  0  0  0
    1.4168    1.1801    0.9415 H   0  0  0  0  0  0  0  0  0  0  0  0
    2.7216    0.0955    0.4440 H   0  0  0  0  0  0  0  0  0  0  0  0
    1.3466    0.3002   -1.9981 H   0  0  0  0  0  0  0  0  0  0  0  0
    2.7350    1.2875   -1.4882 H   0  0  0  0  0  0  0  0  0  0  0  0
    1.1031    1.9222   -1.2287 H   0  0  0  0  0  0  0  0  0  0  0  0
   -0.9262   -1.7071    0.0087 H   0  0  0  0  0  0  0  0  0  0  0  0
   -0.3488   -0.6809   -1.3302 H   0  0  0  0  0  0  0  0  0  0  0  0
   -0.9560    1.3488   -0.0012 H   0  0  0  0  0  0  0  0  0  0  0  0
   -1.5050    0.3695    1.3646 H   0  0  0  0  0  0  0  0  0  0  0  0
   -3.4014   -0.3488    0.1978 H   0  0  0  0  0  0  0  0  0  0  0  0
   -3.1447    1.2673   -0.5203 H   0  0  0  0  0  0  0  0  0  0  0  0
   -2.5890   -0.1489   -1.4506 H   0  0  0  0  0  0  0  0  0  0  0  0
  1  2  1  0
  2  3  1  0
  3  4  1  0
  2  5  1  0
  5  6  1  0
  6  7  1  0
  1  8  1  0
  1  9  1  0
  1 10  1  0
  3 11  1  0
  3 12  1  0
  4 13  1  0
  4 14  1  0
  4 15  1  0
  5 16  1  0
  5 17  1  0
  6 18  1  0
  6 19  1  0
  7 20  1  0
  7 21  1  0
  7 22  1  0
M  END
$$$$
